L6/1726525/Cargas.dss
! ==========================================================
! CARGAS — mes 01
! BT: UCBT_tab agregada por transformador (kW = ENE/730 h)
! MT: UCMT_tab individual no PAC do consumidor
! fator de escala aplicado: 1
! 0 cargas de MT descartadas por PAC ausente da rede.
! ==========================================================
New Load.BT_324733682_325977791_1 Bus1=node_419255663.1.4 Phases=1 Model=8 zipv=(0.5,0,0.5,1,0,0,0) kv=0.1200 pf=0.92 kW=7.996575 Daily=RES1_25
New Load.BT_324733682_325977791_2 Bus1=node_419255663.2.4 Phases=1 Model=8 zipv=(0.5,0,0.5,1,0,0,0) kv=0.1200 pf=0.92 kW=7.996575 Daily=RES1_25
New Load.BT_524069954_524069953_1 Bus1=node_463889559.1.4 Phases=1 Model=8 zipv=(0.5,0,0.5,1,0,0,0) kv=0.1270 pf=0.92 kW=5.802283 Daily=RES1_25
New Load.BT_524069954_524069953_2 Bus1=node_463889559.2.4 Phases=1 Model=8 zipv=(0.5,0,0.5,1,0,0,0) kv=0.1270 pf=0.92 kW=5.802283 Daily=RES1_25
New Load.BT_524069954_524069953_3 Bus1=node_463889559.3.4 Phases=1 Model=8 zipv=(0.5,0,0.5,1,0,0,0) kv=0.1270 pf=0.92 kW=5.802283 Daily=RES1_25
New Load.BT_325148459_325907510_1 Bus1=node_419428138.1.4 Phases=1 Model=8 zipv=(0.5,0,0.5,1,0,0,0) kv=0.1200 pf=0.92 kW=5.680822 Daily=RES1_25
New Load.BT_325148459_325907510_2 Bus1=node_419428138.2.4 Phases=1 Model=8 zipv=(0.5,0,0.5,1,0,0,0) kv=0.1200 pf=0.92 kW=5.680822 Daily=RES1_25
New Load.BT_324985787_325930570_1 Bus1=node_419254739.1.4 Phases=1 Model=8 zipv=(0.5,0,0.5,1,0,0,0) kv=0.1270 pf=0.92 kW=4.633790 Daily=RES1_25
New Load.BT_324985787_325930570_2 Bus1=node_419254739.2.4 Phases=1 Model=8 zipv=(0.5,0,0.5,1,0,0,0) kv=0.1270 pf=0.92 kW=4.633790 Daily=RES1_25
New Load.BT_324985787_325930570_3 Bus1=node_419254739.3.4 Phases=1 Model=8 zipv=(0.5,0,0.5,1,0,0,0) kv=0.1270 pf=0.92 kW=4.633790 Daily=RES1_25
New Load.BT_325382667_325951208_1 Bus1=node_419254730.1.4 Phases=1 Model=8 zipv=(0.5,0,0.5,1,0,0,0) kv=0.1270 pf=0.92 kW=6.621005 Daily=RES1_25
New Load.BT_325382667_325951208_2 Bus1=node_419254730.2.4 Phases=1 Model=8 zipv=(0.5,0,0.5,1,0,0,0) kv=0.1270 pf=0.92 kW=6.621005 Daily=RES1_25
New Load.BT_325382667_325951208_3 Bus1=node_419254730.3.4 Phases=1 Model=8 zipv=(0.5,0,0.5,1,0,0,0) kv=0.1270 pf=0.92 kW=6.621005 Daily=RES1_25
New Load.BT_325614024_325909524_1 Bus1=node_420410716.1.4 Phases=1 Model=8 zipv=(0.5,0,0.5,1,0,0,0) kv=0.1200 pf=0.92 kW=0.086986 Daily=RES1_25
New Load.BT_325614024_325909524_2 Bus1=node_420410716.2.4 Phases=1 Model=8 zipv=(0.5,0,0.5,1,0,0,0) kv=0.1200 pf=0.92 kW=0.086986 Daily=RES1_25
New Load.BT_325615101_326005285_1 Bus1=node_419464560.1.4 Phases=1 Model=8 zipv=(0.5,0,0.5,1,0,0,0) kv=0.1270 pf=0.92 kW=3.930594 Daily=RES1_25
New Load.BT_325615101_326005285_2 Bus1=node_419464560.2.4 Phases=1 Model=8 zipv=(0.5,0,0.5,1,0,0,0) kv=0.1270 pf=0.92 kW=3.930594 Daily=RES1_25
New Load.BT_325615101_326005285_3 Bus1=node_419464560.3.4 Phases=1 Model=8 zipv=(0.5,0,0.5,1,0,0,0) kv=0.1270 pf=0.92 kW=3.930594 Daily=RES1_25
New Load.BT_324985420_2012937026_1 Bus1=node_419292865.1.4 Phases=1 Model=8 zipv=(0.5,0,0.5,1,0,0,0) kv=0.1270 pf=0.92 kW=12.071233 Daily=RES1_25
New Load.BT_324985420_2012937026_2 Bus1=node_419292865.2.4 Phases=1 Model=8 zipv=(0.5,0,0.5,1,0,0,0) kv=0.1270 pf=0.92 kW=12.071233 Daily=RES1_25
New Load.BT_324985420_2012937026_3 Bus1=node_419292865.3.4 Phases=1 Model=8 zipv=(0.5,0,0.5,1,0,0,0) kv=0.1270 pf=0.92 kW=12.071233 Daily=RES1_25
New Load.BT_324732534_325930523_1 Bus1=node_419292298.1.4 Phases=1 Model=8 zipv=(0.5,0,0.5,1,0,0,0) kv=0.1270 pf=0.92 kW=7.034247 Daily=RES1_25
New Load.BT_324732534_325930523_2 Bus1=node_419292298.2.4 Phases=1 Model=8 zipv=(0.5,0,0.5,1,0,0,0) kv=0.1270 pf=0.92 kW=7.034247 Daily=RES1_25
New Load.BT_324732534_325930523_3 Bus1=node_419292298.3.4 Phases=1 Model=8 zipv=(0.5,0,0.5,1,0,0,0) kv=0.1270 pf=0.92 kW=7.034247 Daily=RES1_25
New Load.BT_325150053_325930513_1 Bus1=node_419256314.1.4 Phases=1 Model=8 zipv=(0.5,0,0.5,1,0,0,0) kv=0.1270 pf=0.92 kW=9.256621 Daily=RES1_25
New Load.BT_325150053_325930513_2 Bus1=node_419256314.2.4 Phases=1 Model=8 zipv=(0.5,0,0.5,1,0,0,0) kv=0.1270 pf=0.92 kW=9.256621 Daily=RES1_25
New Load.BT_325150053_325930513_3 Bus1=node_419256314.3.4 Phases=1 Model=8 zipv=(0.5,0,0.5,1,0,0,0) kv=0.1270 pf=0.92 kW=9.256621 Daily=RES1_25
New Load.BT_325147625_325928857_1 Bus1=node_419256461.1.4 Phases=1 Model=8 zipv=(0.5,0,0.5,1,0,0,0) kv=0.1270 pf=0.92 kW=6.896804 Daily=RES1_25
New Load.BT_325147625_325928857_2 Bus1=node_419256461.2.4 Phases=1 Model=8 zipv=(0.5,0,0.5,1,0,0,0) kv=0.1270 pf=0.92 kW=6.896804 Daily=RES1_25
New Load.BT_325147625_325928857_3 Bus1=node_419256461.3.4 Phases=1 Model=8 zipv=(0.5,0,0.5,1,0,0,0) kv=0.1270 pf=0.92 kW=6.896804 Daily=RES1_25
New Load.BT_325386248_325977807_1 Bus1=node_419294329.1.4 Phases=1 Model=8 zipv=(0.5,0,0.5,1,0,0,0) kv=0.1270 pf=0.92 kW=7.653881 Daily=RES1_25
New Load.BT_325386248_325977807_2 Bus1=node_419294329.2.4 Phases=1 Model=8 zipv=(0.5,0,0.5,1,0,0,0) kv=0.1270 pf=0.92 kW=7.653881 Daily=RES1_25
New Load.BT_325386248_325977807_3 Bus1=node_419294329.3.4 Phases=1 Model=8 zipv=(0.5,0,0.5,1,0,0,0) kv=0.1270 pf=0.92 kW=7.653881 Daily=RES1_25
New Load.BT_325150049_325906948_1 Bus1=node_419293933.1.4 Phases=1 Model=8 zipv=(0.5,0,0.5,1,0,0,0) kv=0.1270 pf=0.92 kW=3.589954 Daily=RES1_25
New Load.BT_325150049_325906948_2 Bus1=node_419293933.2.4 Phases=1 Model=8 zipv=(0.5,0,0.5,1,0,0,0) kv=0.1270 pf=0.92 kW=3.589954 Daily=RES1_25
New Load.BT_325150049_325906948_3 Bus1=node_419293933.3.4 Phases=1 Model=8 zipv=(0.5,0,0.5,1,0,0,0) kv=0.1270 pf=0.92 kW=3.589954 Daily=RES1_25
New Load.BT_325791828_326272468_1 Bus1=node_418170054.1.4 Phases=1 Model=8 zipv=(0.5,0,0.5,1,0,0,0) kv=0.1270 pf=0.92 kW=1.022374 Daily=RES1_25
New Load.BT_325791828_326272468_2 Bus1=node_418170054.2.4 Phases=1 Model=8 zipv=(0.5,0,0.5,1,0,0,0) kv=0.1270 pf=0.92 kW=1.022374 Daily=RES1_25
New Load.BT_325791828_326272468_3 Bus1=node_418170054.3.4 Phases=1 Model=8 zipv=(0.5,0,0.5,1,0,0,0) kv=0.1270 pf=0.92 kW=1.022374 Daily=RES1_25
New Load.BT_325385661_325907583_1 Bus1=node_420928720.1.4 Phases=1 Model=8 zipv=(0.5,0,0.5,1,0,0,0) kv=0.1200 pf=0.92 kW=0.589041 Daily=RES1_25
New Load.BT_325385661_325907583_2 Bus1=node_420928720.2.4 Phases=1 Model=8 zipv=(0.5,0,0.5,1,0,0,0) kv=0.1200 pf=0.92 kW=0.589041 Daily=RES1_25
New Load.BT_325382970_325952952_1 Bus1=node_419256479.1.4 Phases=1 Model=8 zipv=(0.5,0,0.5,1,0,0,0) kv=0.1200 pf=0.92 kW=6.330822 Daily=RES1_25
New Load.BT_325382970_325952952_2 Bus1=node_419256479.2.4 Phases=1 Model=8 zipv=(0.5,0,0.5,1,0,0,0) kv=0.1200 pf=0.92 kW=6.330822 Daily=RES1_25
New Load.BT_324985634_325951175_1 Bus1=node_419393946.1.4 Phases=1 Model=8 zipv=(0.5,0,0.5,1,0,0,0) kv=0.1200 pf=0.92 kW=0.204110 Daily=RES1_25
New Load.BT_324985634_325951175_2 Bus1=node_419393946.2.4 Phases=1 Model=8 zipv=(0.5,0,0.5,1,0,0,0) kv=0.1200 pf=0.92 kW=0.204110 Daily=RES1_25
New Load.BT_324983463_325906546_1 Bus1=node_419213255.1.4 Phases=1 Model=8 zipv=(0.5,0,0.5,1,0,0,0) kv=0.1200 pf=0.92 kW=0.031507 Daily=RES1_25
New Load.BT_324983463_325906546_2 Bus1=node_419213255.2.4 Phases=1 Model=8 zipv=(0.5,0,0.5,1,0,0,0) kv=0.1200 pf=0.92 kW=0.031507 Daily=RES1_25
New Load.BT_325615469_2410247964_1 Bus1=node_419254046.1.4 Phases=1 Model=8 zipv=(0.5,0,0.5,1,0,0,0) kv=0.1270 pf=0.92 kW=9.118265 Daily=RES1_25
New Load.BT_325615469_2410247964_2 Bus1=node_419254046.2.4 Phases=1 Model=8 zipv=(0.5,0,0.5,1,0,0,0) kv=0.1270 pf=0.92 kW=9.118265 Daily=RES1_25
New Load.BT_325615469_2410247964_3 Bus1=node_419254046.3.4 Phases=1 Model=8 zipv=(0.5,0,0.5,1,0,0,0) kv=0.1270 pf=0.92 kW=9.118265 Daily=RES1_25
New Load.BT_446275421_446275420_1 Bus1=node_419254826.1.4 Phases=1 Model=8 zipv=(0.5,0,0.5,1,0,0,0) kv=0.1270 pf=0.92 kW=14.781279 Daily=RES1_25
New Load.BT_446275421_446275420_2 Bus1=node_419254826.2.4 Phases=1 Model=8 zipv=(0.5,0,0.5,1,0,0,0) kv=0.1270 pf=0.92 kW=14.781279 Daily=RES1_25
New Load.BT_446275421_446275420_3 Bus1=node_419254826.3.4 Phases=1 Model=8 zipv=(0.5,0,0.5,1,0,0,0) kv=0.1270 pf=0.92 kW=14.781279 Daily=RES1_25
New Load.BT_325149989_325975612_1 Bus1=node_461821232.1.4 Phases=1 Model=8 zipv=(0.5,0,0.5,1,0,0,0) kv=0.1270 pf=0.92 kW=6.454795 Daily=RES1_25
New Load.BT_325149989_325975612_2 Bus1=node_461821232.2.4 Phases=1 Model=8 zipv=(0.5,0,0.5,1,0,0,0) kv=0.1270 pf=0.92 kW=6.454795 Daily=RES1_25
New Load.BT_325149989_325975612_3 Bus1=node_461821232.3.4 Phases=1 Model=8 zipv=(0.5,0,0.5,1,0,0,0) kv=0.1270 pf=0.92 kW=6.454795 Daily=RES1_25
New Load.BT_325150236_325977811_1 Bus1=node_419257406.1.4 Phases=1 Model=8 zipv=(0.5,0,0.5,1,0,0,0) kv=0.1270 pf=0.92 kW=7.231507 Daily=RES1_25
New Load.BT_325150236_325977811_2 Bus1=node_419257406.2.4 Phases=1 Model=8 zipv=(0.5,0,0.5,1,0,0,0) kv=0.1270 pf=0.92 kW=7.231507 Daily=RES1_25
New Load.BT_325150236_325977811_3 Bus1=node_419257406.3.4 Phases=1 Model=8 zipv=(0.5,0,0.5,1,0,0,0) kv=0.1270 pf=0.92 kW=7.231507 Daily=RES1_25
New Load.BT_325385970_2585610888_1 Bus1=node_419256551.1.4 Phases=1 Model=8 zipv=(0.5,0,0.5,1,0,0,0) kv=0.1270 pf=0.92 kW=3.733790 Daily=RES1_25
New Load.BT_325385970_2585610888_2 Bus1=node_419256551.2.4 Phases=1 Model=8 zipv=(0.5,0,0.5,1,0,0,0) kv=0.1270 pf=0.92 kW=3.733790 Daily=RES1_25
New Load.BT_325385970_2585610888_3 Bus1=node_419256551.3.4 Phases=1 Model=8 zipv=(0.5,0,0.5,1,0,0,0) kv=0.1270 pf=0.92 kW=3.733790 Daily=RES1_25
New Load.BT_324338544_325906701_1 Bus1=node_419254604.1.4 Phases=1 Model=8 zipv=(0.5,0,0.5,1,0,0,0) kv=0.1270 pf=0.92 kW=6.565753 Daily=RES1_25
New Load.BT_324338544_325906701_2 Bus1=node_419254604.2.4 Phases=1 Model=8 zipv=(0.5,0,0.5,1,0,0,0) kv=0.1270 pf=0.92 kW=6.565753 Daily=RES1_25
New Load.BT_324338544_325906701_3 Bus1=node_419254604.3.4 Phases=1 Model=8 zipv=(0.5,0,0.5,1,0,0,0) kv=0.1270 pf=0.92 kW=6.565753 Daily=RES1_25
New Load.BT_324985987_325909223_1 Bus1=node_419253308.1.4 Phases=1 Model=8 zipv=(0.5,0,0.5,1,0,0,0) kv=0.1270 pf=0.92 kW=7.699543 Daily=RES1_25
New Load.BT_324985987_325909223_2 Bus1=node_419253308.2.4 Phases=1 Model=8 zipv=(0.5,0,0.5,1,0,0,0) kv=0.1270 pf=0.92 kW=7.699543 Daily=RES1_25
New Load.BT_324985987_325909223_3 Bus1=node_419253308.3.4 Phases=1 Model=8 zipv=(0.5,0,0.5,1,0,0,0) kv=0.1270 pf=0.92 kW=7.699543 Daily=RES1_25
New Load.BT_324731027_325930560_1 Bus1=node_419464554.1.4 Phases=1 Model=8 zipv=(0.5,0,0.5,1,0,0,0) kv=0.1270 pf=0.92 kW=5.334703 Daily=RES1_25
New Load.BT_324731027_325930560_2 Bus1=node_419464554.2.4 Phases=1 Model=8 zipv=(0.5,0,0.5,1,0,0,0) kv=0.1270 pf=0.92 kW=5.334703 Daily=RES1_25
New Load.BT_324731027_325930560_3 Bus1=node_419464554.3.4 Phases=1 Model=8 zipv=(0.5,0,0.5,1,0,0,0) kv=0.1270 pf=0.92 kW=5.334703 Daily=RES1_25
New Load.BT_324338477_325975228_1 Bus1=node_420891361.1.4 Phases=1 Model=8 zipv=(0.5,0,0.5,1,0,0,0) kv=0.1270 pf=0.92 kW=2.536073 Daily=RES1_25
New Load.BT_324338477_325975228_2 Bus1=node_420891361.2.4 Phases=1 Model=8 zipv=(0.5,0,0.5,1,0,0,0) kv=0.1270 pf=0.92 kW=2.536073 Daily=RES1_25
New Load.BT_324338477_325975228_3 Bus1=node_420891361.3.4 Phases=1 Model=8 zipv=(0.5,0,0.5,1,0,0,0) kv=0.1270 pf=0.92 kW=2.536073 Daily=RES1_25
New Load.BT_325614440_325909090_1 Bus1=node_419394570.1.4 Phases=1 Model=8 zipv=(0.5,0,0.5,1,0,0,0) kv=0.1200 pf=0.92 kW=0.073973 Daily=RES1_25
New Load.BT_325614440_325909090_2 Bus1=node_419394570.2.4 Phases=1 Model=8 zipv=(0.5,0,0.5,1,0,0,0) kv=0.1200 pf=0.92 kW=0.073973 Daily=RES1_25
New Load.BT_325146052_325906709_1 Bus1=node_419254340.1.4 Phases=1 Model=8 zipv=(0.5,0,0.5,1,0,0,0) kv=0.1200 pf=0.92 kW=4.371233 Daily=RES1_25
New Load.BT_325146052_325906709_2 Bus1=node_419254340.2.4 Phases=1 Model=8 zipv=(0.5,0,0.5,1,0,0,0) kv=0.1200 pf=0.92 kW=4.371233 Daily=RES1_25
New Load.BT_324338491_325910013_1 Bus1=node_420853464.1.4 Phases=1 Model=8 zipv=(0.5,0,0.5,1,0,0,0) kv=0.1270 pf=0.92 kW=7.747945 Daily=RES1_25
New Load.BT_324338491_325910013_2 Bus1=node_420853464.2.4 Phases=1 Model=8 zipv=(0.5,0,0.5,1,0,0,0) kv=0.1270 pf=0.92 kW=7.747945 Daily=RES1_25
New Load.BT_324338491_325910013_3 Bus1=node_420853464.3.4 Phases=1 Model=8 zipv=(0.5,0,0.5,1,0,0,0) kv=0.1270 pf=0.92 kW=7.747945 Daily=RES1_25
New Load.BT_325149350_325909138_1 Bus1=node_419255375.1.4 Phases=1 Model=8 zipv=(0.5,0,0.5,1,0,0,0) kv=0.1200 pf=0.92 kW=0.316438 Daily=RES1_25
New Load.BT_325149350_325909138_2 Bus1=node_419255375.2.4 Phases=1 Model=8 zipv=(0.5,0,0.5,1,0,0,0) kv=0.1200 pf=0.92 kW=0.316438 Daily=RES1_25
New Load.BT_325384937_325976180_1 Bus1=node_419293903.1.4 Phases=1 Model=8 zipv=(0.5,0,0.5,1,0,0,0) kv=0.1270 pf=0.92 kW=3.559361 Daily=RES1_25
New Load.BT_325384937_325976180_2 Bus1=node_419293903.2.4 Phases=1 Model=8 zipv=(0.5,0,0.5,1,0,0,0) kv=0.1270 pf=0.92 kW=3.559361 Daily=RES1_25
New Load.BT_325384937_325976180_3 Bus1=node_419293903.3.4 Phases=1 Model=8 zipv=(0.5,0,0.5,1,0,0,0) kv=0.1270 pf=0.92 kW=3.559361 Daily=RES1_25
New Load.BT_324986881_325930527_1 Bus1=node_419292580.1.4 Phases=1 Model=8 zipv=(0.5,0,0.5,1,0,0,0) kv=0.1270 pf=0.92 kW=13.446575 Daily=COM1_26
New Load.BT_324986881_325930527_2 Bus1=node_419292580.2.4 Phases=1 Model=8 zipv=(0.5,0,0.5,1,0,0,0) kv=0.1270 pf=0.92 kW=13.446575 Daily=COM1_26
New Load.BT_324986881_325930527_3 Bus1=node_419292580.3.4 Phases=1 Model=8 zipv=(0.5,0,0.5,1,0,0,0) kv=0.1270 pf=0.92 kW=13.446575 Daily=COM1_26
New Load.BT_2502084976_2502084977_1 Bus1=node_2659709037.1.4 Phases=1 Model=8 zipv=(0.5,0,0.5,1,0,0,0) kv=0.1270 pf=0.92 kW=0.498174 Daily=RES1_25
New Load.BT_2502084976_2502084977_2 Bus1=node_2659709037.2.4 Phases=1 Model=8 zipv=(0.5,0,0.5,1,0,0,0) kv=0.1270 pf=0.92 kW=0.498174 Daily=RES1_25
New Load.BT_2502084976_2502084977_3 Bus1=node_2659709037.3.4 Phases=1 Model=8 zipv=(0.5,0,0.5,1,0,0,0) kv=0.1270 pf=0.92 kW=0.498174 Daily=RES1_25
New Load.BT_325147468_2274677797_1 Bus1=node_419295121.1.4 Phases=1 Model=8 zipv=(0.5,0,0.5,1,0,0,0) kv=0.1270 pf=0.92 kW=3.265753 Daily=RES1_25
New Load.BT_325147468_2274677797_2 Bus1=node_419295121.2.4 Phases=1 Model=8 zipv=(0.5,0,0.5,1,0,0,0) kv=0.1270 pf=0.92 kW=3.265753 Daily=RES1_25
New Load.BT_325147468_2274677797_3 Bus1=node_419295121.3.4 Phases=1 Model=8 zipv=(0.5,0,0.5,1,0,0,0) kv=0.1270 pf=0.92 kW=3.265753 Daily=RES1_25
New Load.BT_325148312_325906691_1 Bus1=node_419255387.1.4 Phases=1 Model=8 zipv=(0.5,0,0.5,1,0,0,0) kv=0.1200 pf=0.92 kW=3.443836 Daily=RES1_25
New Load.BT_325148312_325906691_2 Bus1=node_419255387.2.4 Phases=1 Model=8 zipv=(0.5,0,0.5,1,0,0,0) kv=0.1200 pf=0.92 kW=3.443836 Daily=RES1_25
New Load.BT_325384326_2089061058_1 Bus1=node_419257349.1.4 Phases=1 Model=8 zipv=(0.5,0,0.5,1,0,0,0) kv=0.1270 pf=0.92 kW=4.569863 Daily=RES1_25
New Load.BT_325384326_2089061058_2 Bus1=node_419257349.2.4 Phases=1 Model=8 zipv=(0.5,0,0.5,1,0,0,0) kv=0.1270 pf=0.92 kW=4.569863 Daily=RES1_25
New Load.BT_325384326_2089061058_3 Bus1=node_419257349.3.4 Phases=1 Model=8 zipv=(0.5,0,0.5,1,0,0,0) kv=0.1270 pf=0.92 kW=4.569863 Daily=RES1_25
New Load.BT_324983702_326005236_1 Bus1=node_419292364.1.4 Phases=1 Model=8 zipv=(0.5,0,0.5,1,0,0,0) kv=0.1270 pf=0.92 kW=5.872146 Daily=RES1_25
New Load.BT_324983702_326005236_2 Bus1=node_419292364.2.4 Phases=1 Model=8 zipv=(0.5,0,0.5,1,0,0,0) kv=0.1270 pf=0.92 kW=5.872146 Daily=RES1_25
New Load.BT_324983702_326005236_3 Bus1=node_419292364.3.4 Phases=1 Model=8 zipv=(0.5,0,0.5,1,0,0,0) kv=0.1270 pf=0.92 kW=5.872146 Daily=RES1_25
New Load.BT_789889950_789889949_1 Bus1=node_464667357.1.4 Phases=1 Model=8 zipv=(0.5,0,0.5,1,0,0,0) kv=0.1270 pf=0.92 kW=5.284932 Daily=RES1_25
New Load.BT_789889950_789889949_2 Bus1=node_464667357.2.4 Phases=1 Model=8 zipv=(0.5,0,0.5,1,0,0,0) kv=0.1270 pf=0.92 kW=5.284932 Daily=RES1_25
New Load.BT_789889950_789889949_3 Bus1=node_464667357.3.4 Phases=1 Model=8 zipv=(0.5,0,0.5,1,0,0,0) kv=0.1270 pf=0.92 kW=5.284932 Daily=RES1_25
New Load.BT_324985021_325951214_1 Bus1=node_419253539.1.4 Phases=1 Model=8 zipv=(0.5,0,0.5,1,0,0,0) kv=0.1270 pf=0.92 kW=7.521918 Daily=RES1_25
New Load.BT_324985021_325951214_2 Bus1=node_419253539.2.4 Phases=1 Model=8 zipv=(0.5,0,0.5,1,0,0,0) kv=0.1270 pf=0.92 kW=7.521918 Daily=RES1_25
New Load.BT_324985021_325951214_3 Bus1=node_419253539.3.4 Phases=1 Model=8 zipv=(0.5,0,0.5,1,0,0,0) kv=0.1270 pf=0.92 kW=7.521918 Daily=RES1_25
New Load.BT_325148216_325930511_1 Bus1=node_419294320.1.4 Phases=1 Model=8 zipv=(0.5,0,0.5,1,0,0,0) kv=0.1270 pf=0.92 kW=4.310046 Daily=RES1_25
New Load.BT_325148216_325930511_2 Bus1=node_419294320.2.4 Phases=1 Model=8 zipv=(0.5,0,0.5,1,0,0,0) kv=0.1270 pf=0.92 kW=4.310046 Daily=RES1_25
New Load.BT_325148216_325930511_3 Bus1=node_419294320.3.4 Phases=1 Model=8 zipv=(0.5,0,0.5,1,0,0,0) kv=0.1270 pf=0.92 kW=4.310046 Daily=RES1_25
New Load.BT_324731408_325952987_1 Bus1=node_419256560.1.4 Phases=1 Model=8 zipv=(0.5,0,0.5,1,0,0,0) kv=0.1270 pf=0.92 kW=2.284018 Daily=RES1_25
New Load.BT_324731408_325952987_2 Bus1=node_419256560.2.4 Phases=1 Model=8 zipv=(0.5,0,0.5,1,0,0,0) kv=0.1270 pf=0.92 kW=2.284018 Daily=RES1_25
New Load.BT_324731408_325952987_3 Bus1=node_419256560.3.4 Phases=1 Model=8 zipv=(0.5,0,0.5,1,0,0,0) kv=0.1270 pf=0.92 kW=2.284018 Daily=RES1_25
New Load.BT_325615653_1362482560_1 Bus1=node_419257385.1.4 Phases=1 Model=8 zipv=(0.5,0,0.5,1,0,0,0) kv=0.1270 pf=0.92 kW=2.619178 Daily=RES1_25
New Load.BT_325615653_1362482560_2 Bus1=node_419257385.2.4 Phases=1 Model=8 zipv=(0.5,0,0.5,1,0,0,0) kv=0.1270 pf=0.92 kW=2.619178 Daily=RES1_25
New Load.BT_325615653_1362482560_3 Bus1=node_419257385.3.4 Phases=1 Model=8 zipv=(0.5,0,0.5,1,0,0,0) kv=0.1270 pf=0.92 kW=2.619178 Daily=RES1_25
New Load.BT_325615082_325975266_1 Bus1=node_420889972.1.4 Phases=1 Model=8 zipv=(0.5,0,0.5,1,0,0,0) kv=0.1270 pf=0.92 kW=2.576256 Daily=RES1_25
New Load.BT_325615082_325975266_2 Bus1=node_420889972.2.4 Phases=1 Model=8 zipv=(0.5,0,0.5,1,0,0,0) kv=0.1270 pf=0.92 kW=2.576256 Daily=RES1_25
New Load.BT_325615082_325975266_3 Bus1=node_420889972.3.4 Phases=1 Model=8 zipv=(0.5,0,0.5,1,0,0,0) kv=0.1270 pf=0.92 kW=2.576256 Daily=RES1_25
New Load.BT_325146429_325951183_1 Bus1=node_419294350.1.4 Phases=1 Model=8 zipv=(0.5,0,0.5,1,0,0,0) kv=0.1270 pf=0.92 kW=4.193607 Daily=RES1_25
New Load.BT_325146429_325951183_2 Bus1=node_419294350.2.4 Phases=1 Model=8 zipv=(0.5,0,0.5,1,0,0,0) kv=0.1270 pf=0.92 kW=4.193607 Daily=RES1_25
New Load.BT_325146429_325951183_3 Bus1=node_419294350.3.4 Phases=1 Model=8 zipv=(0.5,0,0.5,1,0,0,0) kv=0.1270 pf=0.92 kW=4.193607 Daily=RES1_25
New Load.BT_324983673_325931740_1 Bus1=node_419674285.1.4 Phases=1 Model=8 zipv=(0.5,0,0.5,1,0,0,0) kv=0.1270 pf=0.92 kW=5.618721 Daily=RES1_25
New Load.BT_324983673_325931740_2 Bus1=node_419674285.2.4 Phases=1 Model=8 zipv=(0.5,0,0.5,1,0,0,0) kv=0.1270 pf=0.92 kW=5.618721 Daily=RES1_25
New Load.BT_324983673_325931740_3 Bus1=node_419674285.3.4 Phases=1 Model=8 zipv=(0.5,0,0.5,1,0,0,0) kv=0.1270 pf=0.92 kW=5.618721 Daily=RES1_25
New Load.BT_325131166_326274847_1 Bus1=node_418135016.1.4 Phases=1 Model=8 zipv=(0.5,0,0.5,1,0,0,0) kv=0.1200 pf=0.92 kW=0.165068 Daily=RES1_25
New Load.BT_325131166_326274847_2 Bus1=node_418135016.2.4 Phases=1 Model=8 zipv=(0.5,0,0.5,1,0,0,0) kv=0.1200 pf=0.92 kW=0.165068 Daily=RES1_25
New Load.BT_325385905_325909994_1 Bus1=node_419498116.1.4 Phases=1 Model=8 zipv=(0.5,0,0.5,1,0,0,0) kv=0.1270 pf=0.92 kW=2.396347 Daily=RES1_25
New Load.BT_325385905_325909994_2 Bus1=node_419498116.2.4 Phases=1 Model=8 zipv=(0.5,0,0.5,1,0,0,0) kv=0.1270 pf=0.92 kW=2.396347 Daily=RES1_25
New Load.BT_325385905_325909994_3 Bus1=node_419498116.3.4 Phases=1 Model=8 zipv=(0.5,0,0.5,1,0,0,0) kv=0.1270 pf=0.92 kW=2.396347 Daily=RES1_25
New Load.BT_324985962_325930516_1 Bus1=node_419256374.1.4 Phases=1 Model=8 zipv=(0.5,0,0.5,1,0,0,0) kv=0.1270 pf=0.92 kW=4.718721 Daily=RES1_25
New Load.BT_324985962_325930516_2 Bus1=node_419256374.2.4 Phases=1 Model=8 zipv=(0.5,0,0.5,1,0,0,0) kv=0.1270 pf=0.92 kW=4.718721 Daily=RES1_25
New Load.BT_324985962_325930516_3 Bus1=node_419256374.3.4 Phases=1 Model=8 zipv=(0.5,0,0.5,1,0,0,0) kv=0.1270 pf=0.92 kW=4.718721 Daily=RES1_25
New Load.BT_444952869_444952868_1 Bus1=node_419292265.1.4 Phases=1 Model=8 zipv=(0.5,0,0.5,1,0,0,0) kv=0.1200 pf=0.92 kW=5.405479 Daily=RES1_25
New Load.BT_444952869_444952868_2 Bus1=node_419292265.2.4 Phases=1 Model=8 zipv=(0.5,0,0.5,1,0,0,0) kv=0.1200 pf=0.92 kW=5.405479 Daily=RES1_25
New Load.BT_325615307_1897883599_1 Bus1=node_419214044.1.4 Phases=1 Model=8 zipv=(0.5,0,0.5,1,0,0,0) kv=0.1200 pf=0.92 kW=0.465753 Daily=RES1_25
New Load.BT_325615307_1897883599_2 Bus1=node_419214044.2.4 Phases=1 Model=8 zipv=(0.5,0,0.5,1,0,0,0) kv=0.1200 pf=0.92 kW=0.465753 Daily=RES1_25
New Load.BT_324985484_325977801_1 Bus1=node_419256566.1.4 Phases=1 Model=8 zipv=(0.5,0,0.5,1,0,0,0) kv=0.1270 pf=0.92 kW=7.467580 Daily=RES1_25
New Load.BT_324985484_325977801_2 Bus1=node_419256566.2.4 Phases=1 Model=8 zipv=(0.5,0,0.5,1,0,0,0) kv=0.1270 pf=0.92 kW=7.467580 Daily=RES1_25
New Load.BT_324985484_325977801_3 Bus1=node_419256566.3.4 Phases=1 Model=8 zipv=(0.5,0,0.5,1,0,0,0) kv=0.1270 pf=0.92 kW=7.467580 Daily=RES1_25
New Load.BT_325614981_325930556_1 Bus1=node_419464530.1.4 Phases=1 Model=8 zipv=(0.5,0,0.5,1,0,0,0) kv=0.1270 pf=0.92 kW=3.260274 Daily=RES1_25
New Load.BT_325614981_325930556_2 Bus1=node_419464530.2.4 Phases=1 Model=8 zipv=(0.5,0,0.5,1,0,0,0) kv=0.1270 pf=0.92 kW=3.260274 Daily=RES1_25
New Load.BT_325614981_325930556_3 Bus1=node_419464530.3.4 Phases=1 Model=8 zipv=(0.5,0,0.5,1,0,0,0) kv=0.1270 pf=0.92 kW=3.260274 Daily=RES1_25
New Load.BT_325385996_325977761_1 Bus1=node_419427664.1.4 Phases=1 Model=8 zipv=(0.5,0,0.5,1,0,0,0) kv=0.1270 pf=0.92 kW=2.200000 Daily=RES1_25
New Load.BT_325385996_325977761_2 Bus1=node_419427664.2.4 Phases=1 Model=8 zipv=(0.5,0,0.5,1,0,0,0) kv=0.1270 pf=0.92 kW=2.200000 Daily=RES1_25
New Load.BT_325385996_325977761_3 Bus1=node_419427664.3.4 Phases=1 Model=8 zipv=(0.5,0,0.5,1,0,0,0) kv=0.1270 pf=0.92 kW=2.200000 Daily=RES1_25
New Load.BT_325382747_325977727_1 Bus1=node_419254268.1.4 Phases=1 Model=8 zipv=(0.5,0,0.5,1,0,0,0) kv=0.1270 pf=0.92 kW=4.107306 Daily=RES1_25
New Load.BT_325382747_325977727_2 Bus1=node_419254268.2.4 Phases=1 Model=8 zipv=(0.5,0,0.5,1,0,0,0) kv=0.1270 pf=0.92 kW=4.107306 Daily=RES1_25
New Load.BT_325382747_325977727_3 Bus1=node_419254268.3.4 Phases=1 Model=8 zipv=(0.5,0,0.5,1,0,0,0) kv=0.1270 pf=0.92 kW=4.107306 Daily=RES1_25
New Load.BT_324729921_325617274_1 Bus1=node_419294356.1.4 Phases=1 Model=8 zipv=(0.5,0,0.5,1,0,0,0) kv=0.1270 pf=0.92 kW=2.550685 Daily=RES1_25
New Load.BT_324729921_325617274_2 Bus1=node_419294356.2.4 Phases=1 Model=8 zipv=(0.5,0,0.5,1,0,0,0) kv=0.1270 pf=0.92 kW=2.550685 Daily=RES1_25
New Load.BT_324729921_325617274_3 Bus1=node_419294356.3.4 Phases=1 Model=8 zipv=(0.5,0,0.5,1,0,0,0) kv=0.1270 pf=0.92 kW=2.550685 Daily=RES1_25
New Load.BT_324986192_325948999_1 Bus1=node_419293909.1.4 Phases=1 Model=8 zipv=(0.5,0,0.5,1,0,0,0) kv=0.1270 pf=0.92 kW=6.750685 Daily=RES1_25
New Load.BT_324986192_325948999_2 Bus1=node_419293909.2.4 Phases=1 Model=8 zipv=(0.5,0,0.5,1,0,0,0) kv=0.1270 pf=0.92 kW=6.750685 Daily=RES1_25
New Load.BT_324986192_325948999_3 Bus1=node_419293909.3.4 Phases=1 Model=8 zipv=(0.5,0,0.5,1,0,0,0) kv=0.1270 pf=0.92 kW=6.750685 Daily=RES1_25
New Load.BT_325149433_325906660_1 Bus1=node_419428135.1.4 Phases=1 Model=8 zipv=(0.5,0,0.5,1,0,0,0) kv=0.1270 pf=0.92 kW=5.354338 Daily=RES1_25
New Load.BT_325149433_325906660_2 Bus1=node_419428135.2.4 Phases=1 Model=8 zipv=(0.5,0,0.5,1,0,0,0) kv=0.1270 pf=0.92 kW=5.354338 Daily=RES1_25
New Load.BT_325149433_325906660_3 Bus1=node_419428135.3.4 Phases=1 Model=8 zipv=(0.5,0,0.5,1,0,0,0) kv=0.1270 pf=0.92 kW=5.354338 Daily=RES1_25
New Load.BT_325149963_325951134_1 Bus1=node_462151848.1.4 Phases=1 Model=8 zipv=(0.5,0,0.5,1,0,0,0) kv=0.1270 pf=0.92 kW=2.986301 Daily=RES1_25
New Load.BT_325149963_325951134_2 Bus1=node_462151848.2.4 Phases=1 Model=8 zipv=(0.5,0,0.5,1,0,0,0) kv=0.1270 pf=0.92 kW=2.986301 Daily=RES1_25
New Load.BT_325149963_325951134_3 Bus1=node_462151848.3.4 Phases=1 Model=8 zipv=(0.5,0,0.5,1,0,0,0) kv=0.1270 pf=0.92 kW=2.986301 Daily=RES1_25
New Load.BT_325383265_325928989_1 Bus1=node_423237272.1.4 Phases=1 Model=8 zipv=(0.5,0,0.5,1,0,0,0) kv=0.1200 pf=0.92 kW=0.139041 Daily=RES1_25
New Load.BT_325383265_325928989_2 Bus1=node_423237272.2.4 Phases=1 Model=8 zipv=(0.5,0,0.5,1,0,0,0) kv=0.1200 pf=0.92 kW=0.139041 Daily=RES1_25
New Load.BT_324730520_326005295_1 Bus1=node_419254721.1.4 Phases=1 Model=8 zipv=(0.5,0,0.5,1,0,0,0) kv=0.1270 pf=0.92 kW=1.923288 Daily=RES1_25
New Load.BT_324730520_326005295_2 Bus1=node_419254721.2.4 Phases=1 Model=8 zipv=(0.5,0,0.5,1,0,0,0) kv=0.1270 pf=0.92 kW=1.923288 Daily=RES1_25
New Load.BT_324730520_326005295_3 Bus1=node_419254721.3.4 Phases=1 Model=8 zipv=(0.5,0,0.5,1,0,0,0) kv=0.1270 pf=0.92 kW=1.923288 Daily=RES1_25
New Load.BT_325383991_325952953_1 Bus1=node_419256344.1.4 Phases=1 Model=8 zipv=(0.5,0,0.5,1,0,0,0) kv=0.1200 pf=0.92 kW=3.513699 Daily=RES1_25
New Load.BT_325383991_325952953_2 Bus1=node_419256344.2.4 Phases=1 Model=8 zipv=(0.5,0,0.5,1,0,0,0) kv=0.1200 pf=0.92 kW=3.513699 Daily=RES1_25
New Load.BT_324338506_325928829_1 Bus1=node_419428114.1.4 Phases=1 Model=8 zipv=(0.5,0,0.5,1,0,0,0) kv=0.1270 pf=0.92 kW=3.849772 Daily=RES1_25
New Load.BT_324338506_325928829_2 Bus1=node_419428114.2.4 Phases=1 Model=8 zipv=(0.5,0,0.5,1,0,0,0) kv=0.1270 pf=0.92 kW=3.849772 Daily=RES1_25
New Load.BT_324338506_325928829_3 Bus1=node_419428114.3.4 Phases=1 Model=8 zipv=(0.5,0,0.5,1,0,0,0) kv=0.1270 pf=0.92 kW=3.849772 Daily=RES1_25
New Load.BT_324986662_1164880870_1 Bus1=node_419292589.1.4 Phases=1 Model=8 zipv=(0.5,0,0.5,1,0,0,0) kv=0.1270 pf=0.92 kW=7.105023 Daily=RES1_25
New Load.BT_324986662_1164880870_2 Bus1=node_419292589.2.4 Phases=1 Model=8 zipv=(0.5,0,0.5,1,0,0,0) kv=0.1270 pf=0.92 kW=7.105023 Daily=RES1_25
New Load.BT_324986662_1164880870_3 Bus1=node_419292589.3.4 Phases=1 Model=8 zipv=(0.5,0,0.5,1,0,0,0) kv=0.1270 pf=0.92 kW=7.105023 Daily=RES1_25
New Load.BT_325383753_1963710610_1 Bus1=node_419292856.1.4 Phases=1 Model=8 zipv=(0.5,0,0.5,1,0,0,0) kv=0.1270 pf=0.92 kW=5.665753 Daily=RES1_25
New Load.BT_325383753_1963710610_2 Bus1=node_419292856.2.4 Phases=1 Model=8 zipv=(0.5,0,0.5,1,0,0,0) kv=0.1270 pf=0.92 kW=5.665753 Daily=RES1_25
New Load.BT_325383753_1963710610_3 Bus1=node_419292856.3.4 Phases=1 Model=8 zipv=(0.5,0,0.5,1,0,0,0) kv=0.1270 pf=0.92 kW=5.665753 Daily=RES1_25
New Load.BT_325384145_325909203_1 Bus1=node_419294182.1.4 Phases=1 Model=8 zipv=(0.5,0,0.5,1,0,0,0) kv=0.1270 pf=0.92 kW=4.222831 Daily=RES1_25
New Load.BT_325384145_325909203_2 Bus1=node_419294182.2.4 Phases=1 Model=8 zipv=(0.5,0,0.5,1,0,0,0) kv=0.1270 pf=0.92 kW=4.222831 Daily=RES1_25
New Load.BT_325384145_325909203_3 Bus1=node_419294182.3.4 Phases=1 Model=8 zipv=(0.5,0,0.5,1,0,0,0) kv=0.1270 pf=0.92 kW=4.222831 Daily=RES1_25
New Load.BT_325382708_325906827_1 Bus1=node_419212253.1.4 Phases=1 Model=8 zipv=(0.5,0,0.5,1,0,0,0) kv=0.1200 pf=0.92 kW=0.116438 Daily=RES1_25
New Load.BT_325382708_325906827_2 Bus1=node_419212253.2.4 Phases=1 Model=8 zipv=(0.5,0,0.5,1,0,0,0) kv=0.1200 pf=0.92 kW=0.116438 Daily=RES1_25
New Load.BT_324984039_325930534_1 Bus1=node_419295118.1.4 Phases=1 Model=8 zipv=(0.5,0,0.5,1,0,0,0) kv=0.1270 pf=0.92 kW=6.222831 Daily=RES1_25
New Load.BT_324984039_325930534_2 Bus1=node_419295118.2.4 Phases=1 Model=8 zipv=(0.5,0,0.5,1,0,0,0) kv=0.1270 pf=0.92 kW=6.222831 Daily=RES1_25
New Load.BT_324984039_325930534_3 Bus1=node_419295118.3.4 Phases=1 Model=8 zipv=(0.5,0,0.5,1,0,0,0) kv=0.1270 pf=0.92 kW=6.222831 Daily=RES1_25
New Load.BT_325791646_326245209_1 Bus1=node_418572535.1.4 Phases=1 Model=8 zipv=(0.5,0,0.5,1,0,0,0) kv=0.1200 pf=0.92 kW=0.134932 Daily=RES1_25
New Load.BT_325791646_326245209_2 Bus1=node_418572535.2.4 Phases=1 Model=8 zipv=(0.5,0,0.5,1,0,0,0) kv=0.1200 pf=0.92 kW=0.134932 Daily=RES1_25
New Load.BT_324729983_325907518_1 Bus1=node_420833432.1.4 Phases=1 Model=8 zipv=(0.5,0,0.5,1,0,0,0) kv=0.1200 pf=0.92 kW=2.129452 Daily=RES1_25
New Load.BT_324729983_325907518_2 Bus1=node_420833432.2.4 Phases=1 Model=8 zipv=(0.5,0,0.5,1,0,0,0) kv=0.1200 pf=0.92 kW=2.129452 Daily=RES1_25
New Load.BT_324731198_325909596_1 Bus1=node_419254061.1.4 Phases=1 Model=8 zipv=(0.5,0,0.5,1,0,0,0) kv=0.1270 pf=0.92 kW=3.768037 Daily=RES1_25
New Load.BT_324731198_325909596_2 Bus1=node_419254061.2.4 Phases=1 Model=8 zipv=(0.5,0,0.5,1,0,0,0) kv=0.1270 pf=0.92 kW=3.768037 Daily=RES1_25
New Load.BT_324731198_325909596_3 Bus1=node_419254061.3.4 Phases=1 Model=8 zipv=(0.5,0,0.5,1,0,0,0) kv=0.1270 pf=0.92 kW=3.768037 Daily=RES1_25
New Load.BT_324984554_325928869_1 Bus1=node_419255390.1.4 Phases=1 Model=8 zipv=(0.5,0,0.5,1,0,0,0) kv=0.1200 pf=0.92 kW=6.390411 Daily=RES1_25
New Load.BT_324984554_325928869_2 Bus1=node_419255390.2.4 Phases=1 Model=8 zipv=(0.5,0,0.5,1,0,0,0) kv=0.1200 pf=0.92 kW=6.390411 Daily=RES1_25
New Load.BT_325615287_325975190_1 Bus1=node_420872452.1.4 Phases=1 Model=8 zipv=(0.5,0,0.5,1,0,0,0) kv=0.1270 pf=0.92 kW=5.665297 Daily=RES1_25
New Load.BT_325615287_325975190_2 Bus1=node_420872452.2.4 Phases=1 Model=8 zipv=(0.5,0,0.5,1,0,0,0) kv=0.1270 pf=0.92 kW=5.665297 Daily=RES1_25
New Load.BT_325615287_325975190_3 Bus1=node_420872452.3.4 Phases=1 Model=8 zipv=(0.5,0,0.5,1,0,0,0) kv=0.1270 pf=0.92 kW=5.665297 Daily=RES1_25
New Load.BT_325385016_325909199_1 Bus1=node_419292592.1.4 Phases=1 Model=8 zipv=(0.5,0,0.5,1,0,0,0) kv=0.1270 pf=0.92 kW=8.224201 Daily=RES1_25
...

! --- cargas de media tensao (UCMT_tab) ---
New Load.MT_node_428567759_2 Bus1=node_428567759.1.2.3 Phases=3 Conn=wye Model=8 zipv=(0.5,0,0.5,1,0,0,0) kv=13.8000 pf=0.92 kW=146.3014 Daily=MT1_1
New Load.MT_node_444761290_3 Bus1=node_444761290.1.2.3 Phases=3 Conn=wye Model=8 zipv=(0.5,0,0.5,1,0,0,0) kv=13.8000 pf=0.92 kW=70.7795 Daily=MT2_1
New Load.MT_node_437846795_4 Bus1=node_437846795.1.2.3 Phases=3 Conn=wye Model=8 zipv=(0.5,0,0.5,1,0,0,0) kv=13.8000 pf=0.92 kW=58.0137 Daily=MT1_1
New Load.MT_node_438075103_5 Bus1=node_438075103.1.2.3 Phases=3 Conn=wye Model=8 zipv=(0.5,0,0.5,1,0,0,0) kv=13.8000 pf=0.92 kW=40.7534 Daily=MT1_1
New Load.MT_node_437850077_6 Bus1=node_437850077.1.2.3 Phases=3 Conn=wye Model=8 zipv=(0.5,0,0.5,1,0,0,0) kv=13.8000 pf=0.92 kW=30.4411 Daily=MT1_1
New Load.MT_node_1725401394_7 Bus1=node_1725401394.1.2.3 Phases=3 Conn=wye Model=8 zipv=(0.5,0,0.5,1,0,0,0) kv=13.8000 pf=0.92 kW=35.9589 Daily=MT1_1
New Load.MT_node_437847079_8 Bus1=node_437847079.1.2.3 Phases=3 Conn=wye Model=8 zipv=(0.5,0,0.5,1,0,0,0) kv=13.8000 pf=0.92 kW=0.1123 Daily=MT1_1
New Load.MT_node_1987749332_10 Bus1=node_1987749332.1.2.3 Phases=3 Conn=wye Model=8 zipv=(0.5,0,0.5,1,0,0,0) kv=13.8000 pf=0.92 kW=9.1096 Daily=MT1_1
New Load.MT_node_1903768190_11 Bus1=node_1903768190.1.2.3 Phases=3 Conn=wye Model=8 zipv=(0.5,0,0.5,1,0,0,0) kv=13.8000 pf=0.92 kW=27.2329 Daily=MT1_1
New Load.MT_node_2243852821_12 Bus1=node_2243852821.1.2.3 Phases=3 Conn=wye Model=8 zipv=(0.5,0,0.5,1,0,0,0) kv=13.8000 pf=0.92 kW=32.2192 Daily=MT1_1
New Load.MT_node_503208138_13 Bus1=node_503208138.1.2.3 Phases=3 Conn=wye Model=8 zipv=(0.5,0,0.5,1,0,0,0) kv=13.8000 pf=0.92 kW=11.3452 Daily=MT1_1
New Load.MT_node_428254702_14 Bus1=node_428254702.1.2.3 Phases=3 Conn=wye Model=8 zipv=(0.5,0,0.5,1,0,0,0) kv=13.8000 pf=0.92 kW=1.0110 Daily=MT1_1
New Load.MT_node_123685555_15 Bus1=node_123685555.1.2.3 Phases=3 Conn=wye Model=8 zipv=(0.5,0,0.5,1,0,0,0) kv=13.8000 pf=0.92 kW=10.5027 Daily=MT5_1
New Load.MT_node_503208148_16 Bus1=node_503208148.1.2.3 Phases=3 Conn=wye Model=8 zipv=(0.5,0,0.5,1,0,0,0) kv=13.8000 pf=0.92 kW=3.3616 Daily=MT1_1
New Load.MT_node_442981008_17 Bus1=node_442981008.1.2.3 Phases=3 Conn=wye Model=8 zipv=(0.5,0,0.5,1,0,0,0) kv=13.8000 pf=0.92 kW=1.9658 Daily=MT1_1
New Load.MT_node_1987749332_18 Bus1=node_1987749332.1.2.3 Phases=3 Conn=wye Model=8 zipv=(0.5,0,0.5,1,0,0,0) kv=13.8000 pf=0.92 kW=16.8767 Daily=MT1_1
New Load.MT_node_1079228761_19 Bus1=node_1079228761.1.2.3 Phases=3 Conn=wye Model=8 zipv=(0.5,0,0.5,1,0,0,0) kv=13.8000 pf=0.92 kW=3.6438 Daily=MT5_1
New Load.MT_node_2726024922_20 Bus1=node_2726024922.1.2.3 Phases=3 Conn=wye Model=8 zipv=(0.5,0,0.5,1,0,0,0) kv=13.8000 pf=0.92 kW=1.4384 Daily=MT1_1
New Load.MT_node_445091214_21 Bus1=node_445091214.1.2.3 Phases=3 Conn=wye Model=8 zipv=(0.5,0,0.5,1,0,0,0) kv=13.8000 pf=0.92 kW=1.6849 Daily=MT5_1
New Load.MT_node_1403833510_22 Bus1=node_1403833510.1.2.3 Phases=3 Conn=wye Model=8 zipv=(0.5,0,0.5,1,0,0,0) kv=13.8000 pf=0.92 kW=0.1918 Daily=MT2_1
New Load.MT_node_428257186_23 Bus1=node_428257186.1.2.3 Phases=3 Conn=wye Model=8 zipv=(0.5,0,0.5,1,0,0,0) kv=13.8000 pf=0.92 kW=2.8644 Daily=MT1_1
